! B3LYP def2-SVP TightSCF Freq Engrad
* xyz 0 1
   N         -0.0000863249         -0.0010161408          0.0826490011
   H          0.4991780401         -0.0010548007         -0.1346233819
   H         -0.2636267112          0.4553848704         -0.1460817108
   H         -0.2313364095         -0.4016689667         -0.1194863889
*
%elprop
 Polar 1
end
