! B3LYP def2-SVP TightSCF Freq Engrad
* xyz 0 1
   N         -0.0000007861         -0.0000001861          0.0853545465
   H          0.4766291366          0.0000398438         -0.1802341953
   H         -0.2383293140          0.4127262026         -0.1803716226
   H         -0.2382917111         -0.4127597158         -0.1803639792
*
%elprop
 Polar 1
end
