! B3LYP def2-SVP TightSCF Freq Engrad
* xyz 0 1
   N         -0.0002770722          0.0012107300          0.0826483285
   H          0.4938399581         -0.0524285630         -0.1374804522
   H         -0.2671253310          0.4307274213         -0.1155647655
   H         -0.2126112169         -0.4410878070         -0.1471239382
*
%elprop
 Polar 1
end
