3
Coordinates from ORCA-job h2o E -76.320582990454
  O       0.000000      0.000000      0.000000
  H       0.750000      0.580000      0.000000
  H      -0.750000      0.580000      0.000000
3
Coordinates from ORCA-job h2o E -76.321238344145
  O      -0.000000     -0.009031      0.000000
  H       0.762922      0.584515      0.000000
  H      -0.762922      0.584515      0.000000
3
Coordinates from ORCA-job h2o E -76.321261853999
  O      -0.000000     -0.011588      0.000000
  H       0.760066      0.585794      0.000000
  H      -0.760066      0.585794      0.000000
3
Coordinates from ORCA-job h2o E -76.321269907555
  O       0.000000     -0.014295      0.000000
  H       0.757110      0.587147      0.000000
  H      -0.757110      0.587147      0.000000
3
Coordinates from ORCA-job h2o E -76.321269930837
  O       0.000000     -0.014264      0.000000
  H       0.757145      0.587132      0.000000
  H      -0.757145      0.587132      0.000000
