4
Coordinates from ORCA-job nh3 E -56.472455539314
  N       0.000000      0.000000      0.120000
  H       0.942800      0.000000     -0.240000
  H      -0.471400      0.816500     -0.240000
  H      -0.471400     -0.816500     -0.240000
4
Coordinates from ORCA-job nh3 E -56.472883272083
  N       0.000021     -0.000000      0.131580
  H       0.948451      0.000000     -0.243855
  H      -0.474236      0.821318     -0.243863
  H      -0.474236     -0.821318     -0.243863
4
Coordinates from ORCA-job nh3 E -56.473048349810
  N       0.000012     -0.000000      0.145556
  H       0.944216      0.000000     -0.248516
  H      -0.472114      0.817672     -0.248520
  H      -0.472114     -0.817672     -0.248520
4
Coordinates from ORCA-job nh3 E -56.473098145167
  N      -0.000031     -0.000000      0.156920
  H       0.938093     -0.000000     -0.252316
  H      -0.469031      0.812467     -0.252302
  H      -0.469031     -0.812467     -0.252302
4
Coordinates from ORCA-job nh3 E -56.473099114386
  N      -0.000017      0.000000      0.156253
  H       0.937891     -0.000000     -0.252090
  H      -0.468937      0.812257     -0.252082
  H      -0.468937     -0.812257     -0.252082
4
Coordinates from ORCA-job nh3 E -56.473099141972
  N      -0.000010      0.000000      0.156183
  H       0.937806     -0.000000     -0.252064
  H      -0.468898      0.812171     -0.252059
  H      -0.468898     -0.812171     -0.252059
