! B3LYP def2-SVP TightSCF Freq Engrad
* xyz 0 1
   N         -0.0000190463          0.0000024741          0.0831864835
   H          0.5236206879         -0.0000023108         -0.1428561915
   H         -0.2614205141          0.4528199915         -0.1425138519
   H         -0.2614630702         -0.4529451377         -0.1425790742
*
%elprop
 Polar 1
end
