! B3LYP def2-SVP TightSCF Freq Engrad
* xyz 0 1
   N          0.0000759555          0.0010161517          0.0826476141
   H          0.4933530770          0.0010547777         -0.1321498438
   H         -0.2326336794          0.4041802996         -0.1206863068
   H         -0.2649239476         -0.4578961912         -0.1472816361
*
%elprop
 Polar 1
end
