! B3LYP def2-SVP TightSCF Freq
* xyz 0 1
   N         -0.0000051847          0.0000000054          0.0826483076
   H          0.4962655586         -0.0000000115         -0.1333866128
   H         -0.2481301953          0.4297825850         -0.1333840088
   H         -0.2481301786         -0.4297825789         -0.1333840125
*
