! B3LYP def2-SVP TightSCF Freq Engrad
* xyz 0 1
   N          0.0010127560         -0.0000810793          0.0826546768
   H          0.4604427334         -0.0000824685         -0.1181280266
   H         -0.2578733413          0.4483479240         -0.1422462028
   H         -0.2553113752         -0.4440605369         -0.1401239593
*
%elprop
 Polar 1
end
