! B3LYP def2-SVP TightSCF Freq Engrad
* xyz 0 1
   N         -0.0010231254          0.0000810901          0.0826419384
   H          0.5320883837          0.0000824455         -0.1486451991
   H         -0.2383870494          0.4112172460         -0.1245218148
   H         -0.2409489819         -0.4155046210         -0.1266440657
*
%elprop
 Polar 1
end
