! B3LYP def2-SVP TightSCF Freq Engrad
* xyz 0 1
   N         -0.0000095833          0.0000001970          0.0799420688
   H          0.5159019806         -0.0000398668         -0.0865390304
   H         -0.2579310767          0.4468389674         -0.0863963950
   H         -0.2579686460         -0.4468054420         -0.0864040458
*
%elprop
 Polar 1
end
