! B3LYP def2-SVP TightSCF Freq Engrad
* xyz 0 1
   N          0.0000086769         -0.0000024632          0.0821101317
   H          0.4689104292          0.0000022878         -0.1239170341
   H         -0.2348398766          0.4067451785         -0.1242541658
   H         -0.2347972870         -0.4066200202         -0.1241889508
*
%elprop
 Polar 1
end
